tests/data/opendss_circuit_models/P4U/p4uhs0_4/p4uhs0_4--p4udt0/Master.dss
Clear

New Circuit.feeder_p4udt0-p4uhs0_4x bus1=p4udt0-p4uhs0_4x pu=1.03 basekV=4.0 R1=1e-05 X1=1e-05 R0=1e-05 X0=1e-05

Redirect LineCodes.dss
Redirect Lines.dss
Redirect Transformers.dss
Redirect Loads.dss
new monitor.m1 element=Line.l(r:p4udt0-p4uhs0_4)_s1 mode=0
new monitor.m2 element=Line.l(r:p4udt0-p4uhs0_4)_s1 mode=1
new energymeter.m3 Line.l(r:p4udt0-p4uhs0_4)_s1

New PVSystem.p4ulv9_pv bus1=p4ulv9.1.2.3 phases=3 kV=0.48 kVA=25 Pmpp=25.0 %Cutout=0.1 %Cutin=0.1 Model=1 irradiance=1

Set Voltagebases=[0.12, 0.208, 0.48, 2.309, 4.0]

Calcvoltagebases

Buscoords Buscoords.dss
set maxcontroliter=50
